13
-44.3268014188
LA 0.550658015379 -0.580849438936 0.578675285829
LA -0.232168709785 -0.266553077276 -0.0986526154654
LA 0.451569257558 -1.0202327325 -0.465860575908
LA -0.492071683452 -0.318887214471 0.950197063308
LA 0.771261888167 0.0632650365844 -0.33257700038
LA -0.915908498692 0.487127772585 0.268554123346
LA -1.23560004011 -0.596371846678 0.135272438269
LA -1.01499346741 0.0477430004762 -0.775982643279
LA 0.188059199926 0.496719325879 0.542594500672
LA -0.329213175184 -1.2564163095 0.326938321299
LA 0.0277349785023 -0.214217922303 -1.14750154689
LA -0.135124378516 0.723310460204 -0.524243154878
LA -0.652397391415 -1.0298264388 -0.739898593203
