13
energy -31.7528911008 rho 1.6047  r0 2.8970  A 0.7102
LA -0.114379884701 -3.48487124216 -3.47101342148
LA 0.715635811688 -2.10695015374 1.82422586239
LA 2.45483468737 -1.14039095855 -0.298530673067
LA -0.287656507019 -0.18594197219 -0.11704670507
LA 0.853415123419 -0.848670164768 -2.71009287704
LA -1.96068362712 -2.41252223561 0.724642365367
LA 0.300607430755 -2.795890067 -0.823388426233
LA 0.888886141016 -5.40583669845 -1.52977623193
LA -1.85362317745 -4.45138250016 -1.34823769203
LA 2.47673975307 -3.9569019159 0.430939726706
LA -1.87554672488 -1.63492167183 -2.07774188185
LA -0.252216627042 -4.74312681975 1.06326437614
LA 2.56193872432 -3.17921735766 -2.37139791388
